
  EPA STORM WATER MANAGEMENT MODEL - VERSION 5.1 (Build 5.1.015)
  --------------------------------------------------------------

  
  *************
  Element Count
  *************
  Number of rain gages ...... 0
  Number of subcatchments ... 0
  Number of nodes ........... 5
  Number of links ........... 4
  Number of pollutants ...... 0
  Number of land uses ....... 0
  
  
  ************
  Node Summary
  ************
                                           Invert      Max.    Ponded    External
  Name                 Type                 Elev.     Depth      Area    Inflow  
  -------------------------------------------------------------------------------
  1                    JUNCTION              5.00      1.00       0.4    Yes
  2                    JUNCTION              4.70      1.00       0.4
  3                    JUNCTION              4.50      1.00       0.4
  4                    JUNCTION              4.30      1.00       0.4
  5                    OUTFALL               4.20      0.40       0.0
  
  
  ************
  Link Summary
  ************
  Name             From Node        To Node          Type            Length    %Slope Roughness
  ---------------------------------------------------------------------------------------------
  1                1                2                CONDUIT           60.0    0.5000    0.0100
  2                2                3                CONDUIT           60.0    0.3333    0.0100
  3                3                4                CONDUIT           60.0    0.3333    0.0100
  4                4                5                CONDUIT           60.0    0.1667    0.0100
  
  
  *********************
  Cross Section Summary
  *********************
                                        Full     Full     Hyd.     Max.   No. of     Full
  Conduit          Shape               Depth     Area     Rad.    Width  Barrels     Flow
  ---------------------------------------------------------------------------------------
  1                CIRCULAR             0.30     0.07     0.07     0.30        1     0.09
  2                CIRCULAR             0.40     0.13     0.10     0.40        1     0.16
  3                CIRCULAR             0.50     0.20     0.12     0.50        1     0.28
  4                CIRCULAR             0.40     0.13     0.10     0.40        1     0.11
  
  
  
  *********************************************************
  NOTE: The summary statistics displayed in this report are
  based on results found at every computational time step,  
  not just on results from each reporting time step.
  *********************************************************
  
  ****************
  Analysis Options
  ****************
  Flow Units ............... CMS
  Process Models:
    Rainfall/Runoff ........ NO
    RDII ................... NO
    Snowmelt ............... NO
    Groundwater ............ NO
    Flow Routing ........... YES
    Ponding Allowed ........ YES
    Water Quality .......... NO
  Flow Routing Method ...... DYNWAVE
  Surcharge Method ......... EXTRAN
  Starting Date ............ 06/28/2023 00:00:00
  Ending Date .............. 06/28/2023 10:00:00
  Antecedent Dry Days ...... 2.0
  Report Time Step ......... 00:02:00
  Routing Time Step ........ 5.00 sec
  Variable Time Step ....... YES
  Maximum Trials ........... 8
  Number of Threads ........ 1
  Head Tolerance ........... 0.001500 m
  
  
  *********************
  Control Actions Taken
  *********************

  
  **************************        Volume        Volume
  Flow Routing Continuity        hectare-m      10^6 ltr
  **************************     ---------     ---------
  Dry Weather Inflow .......         0.000         0.000
  Wet Weather Inflow .......         0.000         0.000
  Groundwater Inflow .......         0.000         0.000
  RDII Inflow ..............         0.000         0.000
  External Inflow ..........         0.183         1.829
  External Outflow .........         0.181         1.810
  Flooding Loss ............         0.000         0.000
  Evaporation Loss .........         0.000         0.000
  Exfiltration Loss ........         0.000         0.000
  Initial Stored Volume ....         0.000         0.004
  Final Stored Volume ......         0.002         0.021
  Continuity Error (%) .....         0.031
  
  
  ***************************
  Time-Step Critical Elements
  ***************************
  None
  
  
  ********************************
  Highest Flow Instability Indexes
  ********************************
  All links are stable.
  
  
  *************************
  Routing Time Step Summary
  *************************
  Minimum Time Step           :     0.86 sec
  Average Time Step           :     4.99 sec
  Maximum Time Step           :     5.00 sec
  Percent in Steady State     :     0.00
  Average Iterations per Step :     2.03
  Percent Not Converging      :     0.10
  Time Step Frequencies       :
      5.000 -  3.155 sec      :    99.63 %
      3.155 -  1.991 sec      :     0.25 %
      1.991 -  1.256 sec      :     0.08 %
      1.256 -  0.792 sec      :     0.04 %
      0.792 -  0.500 sec      :     0.00 %
  
  
  ******************
  Node Depth Summary
  ******************
  
  ---------------------------------------------------------------------------------
                                 Average  Maximum  Maximum  Time of Max    Reported
                                   Depth    Depth      HGL   Occurrence   Max Depth
  Node                 Type       Meters   Meters   Meters  days hr:min      Meters
  ---------------------------------------------------------------------------------
  1                    JUNCTION     0.40     2.07     7.07     0  02:39        2.07
  2                    JUNCTION     0.25     0.85     5.55     0  02:40        0.85
  3                    JUNCTION     0.38     0.73     5.23     0  02:40        0.73
  4                    JUNCTION     0.56     0.83     5.13     0  02:42        0.83
  5                    OUTFALL      0.60     0.60     4.80     0  00:00        0.60
  
  
  *******************
  Node Inflow Summary
  *******************
  
  -------------------------------------------------------------------------------------------------
                                  Maximum  Maximum                  Lateral       Total        Flow
                                  Lateral    Total  Time of Max      Inflow      Inflow     Balance
                                   Inflow   Inflow   Occurrence      Volume      Volume       Error
  Node                 Type           CMS      CMS  days hr:min    10^6 ltr    10^6 ltr     Percent
  -------------------------------------------------------------------------------------------------
  1                    JUNCTION     0.200    0.200     0  02:00         1.8         1.8      -0.002
  2                    JUNCTION     0.000    0.200     0  02:40           0        1.81       0.084
  3                    JUNCTION     0.000    0.200     0  02:43           0        1.82       0.382
  4                    JUNCTION     0.000    0.200     0  02:41           0        1.84       0.538
  5                    OUTFALL      0.000    0.200     0  02:40           0        1.84       0.000
  
  
  **********************
  Node Surcharge Summary
  **********************
  
  Surcharging occurs when water rises above the top of the highest conduit.
  ---------------------------------------------------------------------
                                               Max. Height   Min. Depth
                                   Hours       Above Crown    Below Rim
  Node                 Type      Surcharged         Meters       Meters
  ---------------------------------------------------------------------
  1                    JUNCTION        2.51          1.772        0.000
  2                    JUNCTION        2.06          0.454        0.146
  3                    JUNCTION        1.93          0.227        0.273
  4                    JUNCTION        7.03          0.327        0.173
  
  
  *********************
  Node Flooding Summary
  *********************
  
  Flooding refers to all water that overflows a node, whether it ponds or not.
  --------------------------------------------------------------------------
                                                             Total   Maximum
                                 Maximum   Time of Max       Flood    Ponded
                        Hours       Rate    Occurrence      Volume     Depth
  Node                 Flooded       CMS   days hr:min    10^6 ltr    Meters
  --------------------------------------------------------------------------
  1                       1.84     0.002      0  02:00       0.004     1.072
  
  
  ***********************
  Outfall Loading Summary
  ***********************
  
  -----------------------------------------------------------
                         Flow       Avg       Max       Total
                         Freq      Flow      Flow      Volume
  Outfall Node           Pcnt       CMS       CMS    10^6 ltr
  -----------------------------------------------------------
  5                     98.78     0.052     0.200       1.839
  -----------------------------------------------------------
  System                98.78     0.052     0.200       1.839
  
  
  ********************
  Link Flow Summary
  ********************
  
  -----------------------------------------------------------------------------
                                 Maximum  Time of Max   Maximum    Max/    Max/
                                  |Flow|   Occurrence   |Veloc|    Full    Full
  Link                 Type          CMS  days hr:min     m/sec    Flow   Depth
  -----------------------------------------------------------------------------
  1                    CONDUIT     0.200     0  02:40      2.83    2.25    1.00
  2                    CONDUIT     0.200     0  02:43      1.59    1.28    1.00
  3                    CONDUIT     0.200     0  02:41      1.02    0.71    1.00
  4                    CONDUIT     0.200     0  02:40      1.59    1.81    1.00
  
  
  ***************************
  Flow Classification Summary
  ***************************
  
  -------------------------------------------------------------------------------------
                      Adjusted    ---------- Fraction of Time in Flow Class ---------- 
                       /Actual         Up    Down  Sub   Sup   Up    Down  Norm  Inlet 
  Conduit               Length    Dry  Dry   Dry   Crit  Crit  Crit  Crit  Ltd   Ctrl  
  -------------------------------------------------------------------------------------
  1                       1.00   0.00  0.39  0.00  0.49  0.12  0.00  0.00  0.65  0.00
  2                       1.00   0.00  0.00  0.00  1.00  0.00  0.00  0.00  0.10  0.00
  3                       1.00   0.00  0.00  0.00  1.00  0.00  0.00  0.00  0.00  0.00
  4                       1.00   0.00  0.00  0.00  1.00  0.00  0.00  0.00  0.00  0.00
  
  
  *************************
  Conduit Surcharge Summary
  *************************
  
  ----------------------------------------------------------------------------
                                                           Hours        Hours 
                         --------- Hours Full --------   Above Full   Capacity
  Conduit                Both Ends  Upstream  Dnstream   Normal Flow   Limited
  ----------------------------------------------------------------------------
  1                           2.32      2.51      2.32      2.67         2.32
  2                           2.06      2.06      2.50      1.66         1.66
  3                           1.93      1.93      6.95      0.01         0.01
  4                           9.98      9.98     10.00      2.36         2.34
  

  Analysis begun on:  Wed Jun 28 17:57:34 2023
  Analysis ended on:  Wed Jun 28 17:57:34 2023
  Total elapsed time: < 1 sec